panan
1991 1 1 0 0 0

"ocean_daily", 1, "days", 1, "hours", "time"

"ocean_model", "zos", "zos", "ocean_daily", "all", "mean", "none", 2
"ocean_model", "tos", "tos", "ocean_daily", "all", "mean", "none", 2
"ocean_model_z", "u", "u_surf", "ocean_daily", "all", "mean", "none", 2
"ocean_model_z", "v", "v_surf", "ocean_daily", "all", "mean", "none", 2
